<routes>
    <vType accel="4.5" decel="6.0" id="egoCar" length="5.0" minGap="2.5" maxSpeed="40.0" sigma="0.9" color="0,1,0"/>
    <vTypeDistribution id="newvehicledist">
        <vType id="aggressive" color="red" accel="4.5" decel="6.0" length="5.0" minGap="2.0" maxSpeed="40.0" sigma="0.9"
               carFollowModel="IDM" probability=".2" speedFactor="normc(1.3, 0.1, 0.2, 2)" tau="0.5" />
        <vType id="cautious" color="white" accel="4.5" decel="6.0" length="5.0" minGap="7.5" maxSpeed="40.0" sigma="0.3"
               carFollowModel="IDM" probability="0.1" departSpeed="random" speedFactor="normc(0.9, 0.1, 0.2, 2)" tau="1.5"/>
        <vType id="slowbrake" color="white" accel="1.5" decel="2.0" length="5.0" minGap="2.5" maxSpeed="40.0"
               sigma="0.9" carFollowModel="IDM" probability="0.1" speedFactor="normc(1.0, 0.1, 0.2, 2)" emergencyDecel="3.0"/>
        <vType id="slow" color="yellow" accel="3.0" decel="4.5" length="5.0" minGap="2.5" maxSpeed="20.0" sigma="0.9"
               carFollowModel="IDM" probability="0.08" speedFactor="normc(0.5, 0.1, 0.2, 2)" emergencyDecel="6.0"/>
        <vType id="reallyslow" color="yellow" accel="3.0" decel="4.5" length="5.0" minGap="2.5" maxSpeed="10.0" sigma="0.9"
               carFollowModel="IDM" probability="0.02" speedFactor="normc(0.25, 0.1, 0.15, 2)" emergencyDecel="6.0"/>
        <vType id="normal" color="white" accel="4.5" decel="6.0" length="5.0" minGap="2.5" maxSpeed="40.0" sigma="0.9"
               carFollowModel="IDM" probability="0.5" speedFactor="normc(1.0, 0.1, 0.2, 2)"/>
    </vTypeDistribution>
    <route id="rampRoute" edges="ramp highwayahead"/>
    <route id="highwayRoute" edges="highwayrear highwayahead"/>
    <flow id="highwayCars" begin="0" end="100000000" probability="0.6" type="newvehicledist"
          route="highwayRoute" departSpeed="10"/>
</routes>
