<routes>
    <vType accel="4.5" decel="6.0" id="egoCar" length="5.0" minGap="2.5" maxSpeed="40.0" sigma="0.9" color="0,1,0"/>
    <vTypeDistribution id="vehicledist">
        <vType accel="4.5" decel="6.0" id="CarA" length="5.0" minGap="2.5" maxSpeed="40.0" sigma="0.9"
               carFollowModel="IDM" probability="0.25"/>
        <vType accel="3.0" decel="4.5" id="CarB" length="5.0" minGap="2.5" maxSpeed="30.0" sigma="0.9"
               carFollowModel="IDM" tau="4" probability="0.25"/>
        <vType accel="4.5" decel="6.0" id="CarC" length="5.0" minGap="2.5" maxSpeed="10.0" sigma="0.9"
               carFollowModel="IDM" tau="3" probability="0.05"/>
        <vType accel="4.5" decel="6.0" id="CarD" length="5.0" minGap="2.5" maxSpeed="20.0" sigma="0.9"
               carFollowModel="IDM" tau="2" probability="0.15"/>
        <vType accel="3.0" decel="4.5" id="CarE" length="5.0" minGap="2.5" maxSpeed="25.0" sigma="0.9"
               carFollowModel="IDM" tau="2.5" probability="0.25"/>
        <vType accel="4.5" decel="6.0" id="CarF" length="5.0" minGap="2.5" maxSpeed="5.0" sigma="0.9"
               carFollowModel="IDM" probability="0.05"/>
    </vTypeDistribution>
    <vTypeDistribution id="newvehicledist">
        <vType id="aggressive" color="red" accel="4.5" decel="6.0" length="5.0" minGap="1.0" maxSpeed="40.0" sigma="0.9"
               carFollowModel="IDM" departSpeed="random" speedFactor="normc(1.3, 0.1, 0.2, 2)" tau="0.5"/>
        <vType id="cautious" color="white" accel="4.5" decel="6.0" length="5.0" minGap="8.5" maxSpeed="40.0" sigma="0.3"
               carFollowModel="IDM" departSpeed="random" speedFactor="normc(0.9, 0.1, 0.2, 2)" tau="1.5"/>
        <vType id="slowbrake" color="white" accel="1.5" decel="2.0" length="5.0" minGap="2.5" maxSpeed="40.0"
               sigma="0.9" carFollowModel="IDM" departSpeed="random" speedFactor="normc(1.0, 0.1, 0.2, 2)"/>
        <vType id="slow" color="yellow" accel="3.0" decel="4.5" length="5.0" minGap="2.5" maxSpeed="20.0" sigma="0.9"
               carFollowModel="IDM" departSpeed="random" speedFactor="normc(0.5, 0.1, 0.2, 2)"/>
        <vType id="reallyslow" color="yellow" accel="3.0" decel="4.5" length="5.0" minGap="2.5" maxSpeed="10.0" sigma="0.9"
               carFollowModel="IDM" probability="0.05" departSpeed="random" speedFactor="normc(0.25, 0.1, 0.15, 2)"/>
        <vType id="normal" color="white" accel="4.5" decel="6.0" length="5.0" minGap="2.5" maxSpeed="40.0" sigma="0.9"
               carFollowModel="IDM" departSpeed="random" speedFactor="normc(1.0, 0.1, 0.2, 2)"/>
    </vTypeDistribution>
    <route id="rampRoute" edges="ramp highwayahead"/>
    <route id="highwayRoute" edges="highwayrear highwayahead"/>
    <flow id="highwayCars" begin="0" end="100000000" probability="0.2" type="vehicledist"
          route="highwayRoute"/>
</routes>