<?xml version="1.0" encoding="UTF-8"?>

<!-- generated on Wed 07 Aug 2019 10:59:46 AM PDT by Eclipse SUMO netedit Version 1.2.0
<configuration xmlns:xsi="http://www.w3.org/2001/XMLSchema-instance" xsi:noNamespaceSchemaLocation="http://sumo.dlr.de/xsd/netconvertConfiguration.xsd">

    <input>
        <sumo-net-file value="/home/harsh/lane-merge-sumo/merge.net.xml"/>
    </input>

    <output>
        <output-file value="/home/harsh/lane-merge-sumo/merge.net.xml"/>
    </output>

    <processing>
        <geometry.max-grade.fix value="false"/>
        <offset.disable-normalization value="true"/>
        <lefthand value="false"/>
    </processing>

    <junctions>
        <no-turnarounds value="true"/>
        <junctions.corner-detail value="5"/>
        <junctions.limit-turn-speed value="5.5"/>
        <rectangular-lane-cut value="false"/>
    </junctions>

    <pedestrian>
        <walkingareas value="false"/>
    </pedestrian>

</configuration>
-->

<net version="1.1" junctionCornerDetail="5" limitTurnSpeed="5.50" xmlns:xsi="http://www.w3.org/2001/XMLSchema-instance" xsi:noNamespaceSchemaLocation="http://sumo.dlr.de/xsd/net_file.xsd">

    <location netOffset="0.00,0.00" convBoundary="-250.00,0.00,100.00,30.00" origBoundary="-10000000000.00,-10000000000.00,10000000000.00,10000000000.00" projParameter="!"/>

    <edge id=":mergenode_0" function="internal">
        <lane id=":mergenode_0_0" index="0" speed="30.00" length="52.16" shape="-50.66,-1.60 1.50,-1.60"/>
    </edge>
    <edge id=":mergenode_1" function="internal">
        <lane id=":mergenode_1_0" index="0" speed="30.00" length="52.18" shape="-50.58,1.71 1.50,-1.60"/>
    </edge>

    <edge id="highwayahead" from="mergenode" to="nodeahead" priority="-1">
        <lane id="highwayahead_0" index="0" speed="30.00" length="98.50" shape="1.50,-1.60 100.00,-1.60"/>
    </edge>
    <edge id="highwayrear" from="node1highway" to="mergenode" priority="1">
        <lane id="highwayrear_0" index="0" speed="30.00" length="199.34" shape="-250.00,-1.60 -50.66,-1.60"/>
    </edge>
    <edge id="ramp" from="rampnode" to="mergenode" priority="1" shape="-250.00,30.00 -249.06,29.71 -248.08,29.42 -247.07,29.13 -246.03,28.84 -244.96,28.55 -243.86,28.26 -242.73,27.96 -241.57,27.67 -240.38,27.38 -239.16,27.09 -237.91,26.80 -236.64,26.50 -235.33,26.21 -234.00,25.92 -232.64,25.62 -231.26,25.33 -229.85,25.04 -228.41,24.75 -226.95,24.45 -225.46,24.16 -223.94,23.87 -222.41,23.58 -220.84,23.28 -219.26,22.99 -217.65,22.70 -216.01,22.41 -214.36,22.12 -212.68,21.83 -210.98,21.54 -209.26,21.25 -207.51,20.96 -205.75,20.67 -203.96,20.38 -202.16,20.09 -200.33,19.81 -198.49,19.52 -196.62,19.23 -194.74,18.95 -192.84,18.66 -190.92,18.38 -188.98,18.10 -187.03,17.81 -185.06,17.53 -183.07,17.25 -181.06,16.97 -179.04,16.69 -177.01,16.41 -174.95,16.14 -172.89,15.86 -170.81,15.58 -168.71,15.31 -166.60,15.04 -164.48,14.76 -162.35,14.49 -160.20,14.22 -158.04,13.95 -155.87,13.69 -153.68,13.42 -151.49,13.16 -149.28,12.89 -147.07,12.63 -144.84,12.37 -142.60,12.11 -140.36,11.85 -138.10,11.60 -135.84,11.34 -133.57,11.09 -131.29,10.84 -129.00,10.58 -126.71,10.34 -124.41,10.09 -122.10,9.84 -119.79,9.60 -117.47,9.36 -115.14,9.12 -112.81,8.88 -110.48,8.64 -108.14,8.41 -105.80,8.17 -103.45,7.94 -101.10,7.71 -98.75,7.49 -96.39,7.26 -94.03,7.04 -91.67,6.82 -89.31,6.60 -86.95,6.38 -84.59,6.17 -82.23,5.95 -79.86,5.74 -77.50,5.54 -75.14,5.33 -72.78,5.13 -70.42,4.92 -68.06,4.73 -65.71,4.53 -63.36,4.33 -61.01,4.14 -58.66,3.95 -56.32,3.77 -53.98,3.58 -51.65,3.40 -49.32,3.22 -46.99,3.05 -44.67,2.87 -42.36,2.70 -40.05,2.53 -37.75,2.37 -35.46,2.20 -33.17,2.04 -30.89,1.89 -28.62,1.73 -26.36,1.58 -24.11,1.43 -21.86,1.29 -19.63,1.14 -17.40,1.00 -15.19,0.87 -12.98,0.73 -10.79,0.60 -8.61,0.48 -6.44,0.35 -4.28,0.23 -2.13,0.11 0.00,0.00">
        <lane id="ramp_0" index="0" speed="30.00" length="201.92" shape="-250.47,28.47 -249.52,28.18 -248.53,27.88 -247.51,27.59 -246.45,27.30 -245.37,27.00 -244.27,26.71 -243.13,26.41 -241.95,26.12 -240.75,25.82 -239.53,25.53 -238.27,25.24 -237.00,24.94 -235.67,24.65 -234.34,24.36 -232.98,24.06 -231.59,23.76 -230.17,23.47 -228.73,23.18 -227.26,22.88 -225.76,22.59 -224.24,22.30 -222.71,22.01 -221.13,21.71 -219.55,21.42 -217.93,21.12 -216.29,20.83 -214.63,20.54 -212.95,20.25 -211.25,19.96 -209.52,19.67 -207.77,19.38 -206.01,19.09 -204.22,18.80 -202.41,18.51 -200.58,18.23 -198.74,17.94 -196.86,17.65 -194.98,17.37 -193.08,17.08 -191.15,16.80 -189.21,16.52 -187.26,16.23 -185.28,15.95 -183.29,15.67 -181.28,15.39 -179.26,15.11 -177.22,14.82 -175.16,14.55 -173.10,14.27 -171.02,13.99 -168.91,13.72 -166.81,13.45 -164.69,13.17 -162.55,12.90 -160.40,12.63 -158.23,12.36 -156.06,12.10 -153.87,11.83 -151.68,11.57 -149.47,11.30 -147.26,11.04 -145.02,10.78 -142.78,10.52 -140.54,10.26 -138.28,10.01 -136.02,9.75 -133.74,9.50 -131.47,9.25 -129.17,8.99 -126.88,8.75 -124.58,8.50 -122.27,8.25 -119.95,8.01 -117.63,7.77 -115.30,7.53 -112.97,7.29 -110.64,7.05 -108.30,6.82 -105.96,6.58 -103.61,6.35 -101.25,6.12 -98.90,5.90 -96.54,5.67 -94.18,5.45 -91.82,5.23 -89.46,5.01 -87.10,4.79 -84.74,4.58 -82.37,4.36 -80.00,4.15 -77.64,3.95 -75.28,3.74 -72.92,3.54 -70.56,3.33 -68.19,3.14 -65.85,2.94 -63.49,2.74 -61.14,2.55 -58.79,2.35 -56.45,2.17 -54.11,1.98 -51.77,1.80 -50.58,1.71"/>
    </edge>

    <junction id="mergenode" type="priority" x="0.00" y="0.00" incLanes="highwayrear_0 ramp_0" intLanes=":mergenode_0_0 :mergenode_1_0" shape="1.50,0.00 1.50,-3.20 -50.66,-3.20 -50.66,0.00 -50.66,0.11 -50.49,3.31">
        <request index="0" response="00" foes="10" cont="0"/>
        <request index="1" response="01" foes="01" cont="0"/>
    </junction>
    <junction id="node1highway" type="dead_end" x="-250.00" y="0.00" incLanes="" intLanes="" shape="-250.00,0.00 -250.00,-3.20"/>
    <junction id="nodeahead" type="dead_end" x="100.00" y="0.00" incLanes="highwayahead_0" intLanes="" shape="100.00,-3.20 100.00,0.00"/>
    <junction id="rampnode" type="dead_end" x="-250.00" y="30.00" incLanes="" intLanes="" shape="-250.00,30.00 -250.94,26.94"/>

    <connection from="highwayrear" to="highwayahead" keepClear="false" fromLane="0" toLane="0" via=":mergenode_0_0" dir="s" state="M"/>
    <connection from="ramp" to="highwayahead" keepClear="false" fromLane="0" toLane="0" via=":mergenode_1_0" dir="s" state="m"/>

    <connection from=":mergenode_0" to="highwayahead" keepClear="false" fromLane="0" toLane="0" dir="s" state="M"/>
    <connection from=":mergenode_1" to="highwayahead" keepClear="false" fromLane="0" toLane="0" dir="s" state="M"/>

</net>
